@<TRIPOS>MOLECULE
CQW_999_3CQW
   30    33     0     0     0
SMALL
USER_CHARGES

@<TRIPOS>ATOM
      1 C1          2.9290    1.5050   15.5760 C.2       1 <0>         0.0142
      2 C2          8.1940    2.0980   21.1470 C.2       1 <0>         0.0856
      3 C3          4.6600    5.6530   16.1330 C.ar      1 <0>         0.1202
      4 C4          8.4480    4.4160   18.3160 C.3       1 <0>         0.0070
      5 C5          8.2690    3.8790   16.8780 C.3       1 <0>         0.0194
      6 C6          7.1640    1.8790   17.6360 C.3       1 <0>         0.0533
      7 C7          4.2380    1.4870   15.8800 C.2       1 <0>         0.0685
      8 C8          8.1540    3.3920   19.3700 C.2       1 <0>         0.0627
      9 C9          7.5980    2.2150   19.0420 C.2       1 <0>         0.0478
     10 C10         4.6550    2.8970   16.0700 C.ar      1 <0>         0.0744
     11 C11         3.5050    3.6640   15.7790 C.ar      1 <0>         0.1362
     12 C12         5.8100    3.6280   16.4240 C.ar      1 <0>         0.1353
     13 N1          2.4620    2.7910   15.5040 N.pl3     1 <0>        -0.3037
     14 N2          7.6210    1.4130   20.1620 N.pl3     1 <0>        -0.3061
     15 N3          8.5560    3.3120   20.6860 N.2       1 <0>        -0.2430
     16 N4          3.5360    4.9980   15.8130 N.ar      1 <0>        -0.2199
     17 N5          5.7690    4.9660   16.3990 N.ar      1 <0>        -0.2200
     18 N6          7.0580    3.0390   16.7200 N.pl3     1 <0>        -0.3086
     19 Cl1         5.1890    0.0340   16.0180 Cl        1 <0>        -0.0814
     20 H1          2.3263    0.6242   15.4107 H         1 <0>         0.0797
     21 H2          8.3451    1.7395   22.1545 H         1 <0>         0.1000
     22 H3          4.6665    6.7322   16.1750 H         1 <0>         0.1048
     23 H4          9.4919    4.7420   18.4343 H         1 <0>         0.0344
     24 H5          7.7588    5.2618   18.4559 H         1 <0>         0.0344
     25 H6          8.1850    4.7381   16.1962 H         1 <0>         0.0468
     26 H7          9.1484    3.2686   16.6251 H         1 <0>         0.0468
     27 H8          7.9070    1.1866   17.2135 H         1 <0>         0.0527
     28 H9          6.1713    1.4091   17.6961 H         1 <0>         0.0527
     29 H10         1.5225    3.0572   15.2884 H         1 <0>         0.1531
     30 H11         7.2685    0.4792   20.2234 H         1 <0>         0.1528
@<TRIPOS>BOND
     1    1    7 2
     2    1   13 1
     3    2   14 1
     4    2   15 2
     5    3   16 ar
     6    3   17 ar
     7    4    5 1
     8    4    8 1
     9    5   18 1
    10    6    9 1
    11    6   18 1
    12    7   10 1
    13    7   19 1
    14    8    9 2
    15    8   15 1
    16    9   14 1
    17   10   11 ar
    18   10   12 ar
    19   11   13 1
    20   11   16 ar
    21   12   17 ar
    22   12   18 1
    23    1   20 1
    24    2   21 1
    25    3   22 1
    26    4   23 1
    27    4   24 1
    28    5   25 1
    29    5   26 1
    30    6   27 1
    31    6   28 1
    32   13   29 1
    33   14   30 1
