@<TRIPOS>MOLECULE
FR6_1_2E1W
   45    47     0     0     0
SMALL
USER_CHARGES

@<TRIPOS>ATOM
      1 C1         53.8140   57.3180   20.4920 C.3       1 <0>        -0.0372
      2 C2         48.0980   55.4130   16.1710 C.ar      1 <0>        -0.0612
      3 C3         48.5200   54.8420   17.3770 C.ar      1 <0>        -0.0612
      4 C4         47.5180   59.7000   18.3220 C.ar      1 <0>        -0.0609
      5 C5         47.7620   56.7650   16.1080 C.ar      1 <0>        -0.0540
      6 C6         48.6780   55.6420   18.5240 C.ar      1 <0>        -0.0538
      7 C7         47.5040   58.9030   17.1760 C.ar      1 <0>        -0.0540
      8 C8         48.0220   59.1820   19.5170 C.ar      1 <0>        -0.0580
      9 C9         51.5270   54.5190   20.9790 C.2       1 <0>         0.0284
     10 C10        51.3380   54.9180   23.2050 C.2       1 <0>         0.0889
     11 C11        49.1300   57.3580   20.8840 C.3       1 <0>        -0.0253
     12 C12        50.6710   57.4600   20.6780 C.3       1 <0>        -0.0276
     13 C13        47.9030   57.5590   17.2590 C.ar      1 <0>        -0.0176
     14 C14        48.4170   57.8360   19.6260 C.ar      1 <0>        -0.0396
     15 C15        48.3880   57.0270   18.4650 C.ar      1 <0>        -0.0147
     16 C16        51.5360   53.3320   21.6090 C.2       1 <0>         0.1405
     17 C17        53.0510   57.5330   21.8270 C.3       1 <0>         0.0713
     18 C18        51.5520   56.9910   21.8560 C.3       1 <0>         0.0548
     19 C19        51.5700   51.9650   21.0070 C.2       1 <0>         0.2611
     20 N1         51.1200   50.9800   21.7510 N.am      1 <0>        -0.3241
     21 N2         51.4810   53.5840   23.0650 N.2       1 <0>        -0.2337
     22 N3         51.4640   55.5440   22.0340 N.pl3     1 <0>        -0.2898
     23 O1         53.9690   57.2110   22.9310 O.3       1 <0>        -0.3902
     24 O2         52.0650   51.6940   19.9230 O.2       1 <0>        -0.2687
     25 H1         54.8316   57.7263   20.5808 H         1 <0>         0.0255
     26 H2         53.8689   56.2419   20.2704 H         1 <0>         0.0255
     27 H3         53.2820   57.8333   19.6787 H         1 <0>         0.0255
     28 H4         48.0321   54.8022   15.2827 H         1 <0>         0.0618
     29 H5         48.7253   53.7829   17.4277 H         1 <0>         0.0618
     30 H6         47.1412   60.7115   18.2847 H         1 <0>         0.0618
     31 H7         47.3983   57.1961   15.1870 H         1 <0>         0.0624
     32 H8         49.0200   55.2002   19.4483 H         1 <0>         0.0624
     33 H9         47.1879   59.3179   16.2303 H         1 <0>         0.0624
     34 H10        48.1106   59.8293   20.3770 H         1 <0>         0.0620
     35 H11        51.5595   54.6873   19.9127 H         1 <0>         0.0807
     36 H12        51.1462   55.4152   24.1444 H         1 <0>         0.1003
     37 H13        48.8555   56.3122   21.0861 H         1 <0>         0.0314
     38 H14        48.8315   57.9866   21.7359 H         1 <0>         0.0314
     39 H15        50.9262   56.8338   19.8104 H         1 <0>         0.0287
     40 H16        50.9063   58.5191   20.4962 H         1 <0>         0.0287
     41 H17        52.7853   58.5914   21.9657 H         1 <0>         0.0609
     42 H18        51.1301   57.4641   22.7550 H         1 <0>         0.0529
     43 H19        51.1873   50.0367   21.4259 H         1 <0>         0.1453
     44 H20        50.7102   51.1736   22.6424 H         1 <0>         0.1453
     45 H21        53.5232   57.3354   23.7606 H         1 <0>         0.2098
@<TRIPOS>BOND
     1    1   17 1
     2    2    3 ar
     3    2    5 ar
     4    3    6 ar
     5    4    7 ar
     6    4    8 ar
     7    5   13 ar
     8    6   15 ar
     9    7   13 ar
    10    8   14 ar
    11    9   16 2
    12    9   22 1
    13   10   21 2
    14   10   22 1
    15   11   12 1
    16   11   14 1
    17   12   18 1
    18   13   15 ar
    19   14   15 ar
    20   16   19 1
    21   16   21 1
    22   17   18 1
    23   17   23 1
    24   18   22 1
    25   19   20 am
    26   19   24 2
    27    1   25 1
    28    1   26 1
    29    1   27 1
    30    2   28 1
    31    3   29 1
    32    4   30 1
    33    5   31 1
    34    6   32 1
    35    7   33 1
    36    8   34 1
    37    9   35 1
    38   10   36 1
    39   11   37 1
    40   11   38 1
    41   12   39 1
    42   12   40 1
    43   17   41 1
    44   18   42 1
    45   20   43 1
    46   20   44 1
    47   23   45 1
