@<TRIPOS>MOLECULE
*****
   43    44     0     0     0
SMALL
USER_CHARGES

@<TRIPOS>ATOM
      1 O1         24.7640    2.3600   -0.9410 O.3       1 <0>        -0.3842
      2 C1         25.5660    3.0570   -0.0240 C.3       1 <0>         0.1184
      3 N1         29.9900    7.3640    5.2960 N.1       1 <0>        -0.1896
      4 C2         26.2630    4.2520   -0.6910 C.3       1 <0>        -0.0043
      5 N2         26.9110    3.8510   -1.9410 N.4       1 <0>         0.2326
      6 C3         27.7870    4.9400   -2.4080 C.3       1 <0>        -0.0203
      7 C4         29.0440    4.9700   -1.5050 C.3       1 <0>        -0.0193
      8 C5         27.0620    6.3200   -2.3240 C.3       1 <0>        -0.0193
      9 C6         24.6660    3.6160    1.0780 C.3       1 <0>         0.0851
     10 O2         25.5330    3.9350    2.1590 O.3       1 <0>        -0.3413
     11 C7         25.0780    4.6550    3.2030 C.ar      1 <0>         0.0853
     12 C8         23.7370    4.5910    3.5450 C.ar      1 <0>        -0.0310
     13 C9         23.2840    5.2990    4.6530 C.ar      1 <0>        -0.0575
     14 C10        24.1640    6.0620    5.4170 C.ar      1 <0>        -0.0398
     15 C11        25.5130    6.1200    5.0640 C.ar      1 <0>         0.0416
     16 C12        25.9620    5.4170    3.9460 C.ar      1 <0>         0.0285
     17 N3         26.5750    6.7510    5.5740 N.pl3     1 <0>        -0.3056
     18 C13        27.6180    6.4450    4.8040 C.2       1 <0>         0.1103
     19 C14        27.2630    5.6210    3.8050 C.2       1 <0>        -0.0186
     20 C15        28.9670    6.9090    5.0460 C.1       1 <0>         0.1147
     21 C16        28.1550    4.6290   -3.8810 C.3       1 <0>        -0.0193
     22 H1         24.3455    1.6277   -0.5038 H         1 <0>         0.2101
     23 H2         26.3234    2.3630    0.3693 H         1 <0>         0.0670
     24 H3         27.0252    4.6497   -0.0049 H         1 <0>         0.0840
     25 H4         25.5132    5.0266   -0.9096 H         1 <0>         0.0840
     26 H5         26.2141    3.6628   -2.6331 H         1 <0>         0.2020
     27 H6         27.4562    3.0273   -1.7853 H         1 <0>         0.2020
     28 H7         28.7470    5.1928   -0.4695 H         1 <0>         0.0287
     29 H8         29.5440    3.9909   -1.5403 H         1 <0>         0.0287
     30 H9         29.7344    5.7476   -1.8636 H         1 <0>         0.0287
     31 H10        26.8032    6.5357   -1.2769 H         1 <0>         0.0287
     32 H11        27.7277    7.1076   -2.7067 H         1 <0>         0.0287
     33 H12        26.1442    6.2893   -2.9295 H         1 <0>         0.0287
     34 H13        24.1332    4.5126    0.7284 H         1 <0>         0.0593
     35 H14        23.9180    2.8705    1.3856 H         1 <0>         0.0593
     36 H15        23.0513    3.9981    2.9579 H         1 <0>         0.0643
     37 H16        22.2394    5.2568    4.9238 H         1 <0>         0.0619
     38 H17        23.8043    6.6058    6.2780 H         1 <0>         0.0636
     39 H18        26.5848    7.3413    6.3811 H         1 <0>         0.1528
     40 H19        27.9069    5.2088    3.0422 H         1 <0>         0.0650
     41 H20        28.6653    3.6560   -3.9344 H         1 <0>         0.0287
     42 H21        27.2386    4.5960   -4.4886 H         1 <0>         0.0287
     43 H22        28.8222    5.4144   -4.2657 H         1 <0>         0.0287
@<TRIPOS>BOND
     1    6   21 1
     2    6    8 1
     3    5    6 1
     4    6    7 1
     5    4    5 1
     6    1    2 1
     7    2    4 1
     8    2    9 1
     9    9   10 1
    10   10   11 1
    11   11   12 ar
    12   11   16 ar
    13   12   13 ar
    14   16   19 1
    15   18   19 2
    16   15   16 ar
    17   13   14 ar
    18   18   20 1
    19   17   18 1
    20    3   20 3
    21   14   15 ar
    22   15   17 1
    23    1   22 1
    24    2   23 1
    25    4   24 1
    26    4   25 1
    27    5   26 1
    28    5   27 1
    29    7   28 1
    30    7   29 1
    31    7   30 1
    32    8   31 1
    33    8   32 1
    34    8   33 1
    35    9   34 1
    36    9   35 1
    37   12   36 1
    38   13   37 1
    39   14   38 1
    40   17   39 1
    41   19   40 1
    42   21   41 1
    43   21   42 1
    44   21   43 1
