@<TRIPOS>MOLECULE
xtal-lig.mol2
   40    43     0     0     0
SMALL
USER_CHARGES

@<TRIPOS>ATOM
      1 C1        -10.9920   -8.7960   60.6170 C.ar      1 <0>        -0.0584
      2 C2        -11.2410   -8.2970   61.8890 C.ar      1 <0>        -0.0615
      3 C3        -11.9840   -7.1330   62.0450 C.ar      1 <0>        -0.0617
      4 C4        -12.4760   -6.4690   60.9280 C.ar      1 <0>        -0.0615
      5 C5        -12.2300   -6.9690   59.6570 C.ar      1 <0>        -0.0584
      6 C6        -11.4920   -8.1350   59.5010 C.ar      1 <0>        -0.0414
      7 C7        -11.2080   -8.6770   58.1010 C.3       1 <0>         0.0315
      8 C8         -9.7460   -9.1040   58.0060 C.3       1 <0>         0.1554
      9 N1         -9.4200   -9.5440   56.6440 N.pl3     1 <0>        -0.0640
     10 C9         -8.9530   -8.5930   55.8420 C.2       1 <0>         0.9533
     11 N2         -8.5850   -8.8570   54.5780 N.1       1 <0>         0.2395
     12 N3         -8.8330   -7.3590   56.3580 N.1       1 <0>         0.2195
     13 C10        -8.3650   -6.3420   55.6260 C.2       1 <0>         0.7700
     14 N4         -8.2660   -5.1250   56.1560 N.pl3     1 <0>        -0.0974
     15 N5         -7.9810   -6.5820   54.3090 N.pl3     1 <0>         0.2113
     16 N6         -7.5250   -5.8520   53.4280 N.pl3     1 <0>        -0.0509
     17 C11        -8.1040   -7.8740   53.8000 C.2       1 <0>         0.9095
     18 N7         -7.6760   -7.8290   52.5440 N.1       1 <0>         0.1503
     19 C12        -7.3130   -6.5650   52.3200 C.2       1 <0>         0.5484
     20 C13        -6.8090   -6.0540   51.1310 C.2       1 <0>         0.2361
     21 C14        -6.5540   -6.6880   49.9910 C.2       1 <0>        -0.0108
     22 C15        -6.0810   -5.7960   49.1210 C.2       1 <0>        -0.0350
     23 C16        -6.0340   -4.5980   49.7030 C.2       1 <0>         0.0482
     24 O1         -6.4920   -4.7390   50.9840 O.3       1 <0>        -0.2997
     25 H1        -10.4100   -9.6975   60.4949 H         1 <0>         0.0620
     26 H2        -10.8574   -8.8134   62.7565 H         1 <0>         0.0618
     27 H3        -12.1789   -6.7448   63.0338 H         1 <0>         0.0618
     28 H4        -13.0506   -5.5626   61.0491 H         1 <0>         0.0618
     29 H5        -12.6123   -6.4515   58.7896 H         1 <0>         0.0620
     30 H6        -11.4096   -7.8926   57.3567 H         1 <0>         0.0375
     31 H7        -11.8562   -9.5439   57.9054 H         1 <0>         0.0375
     32 H8         -9.5689   -9.9356   58.7039 H         1 <0>         0.1027
     33 H9         -9.1048   -8.2503   58.2705 H         1 <0>         0.1027
     34 H10       -10.2578   -9.9031   56.2327 H         1 <0>         0.4523
     35 H11        -8.5420   -4.9687   57.1044 H         1 <0>         0.4540
     36 H12        -7.9157   -4.3670   55.6058 H         1 <0>         0.4540
     37 H13        -7.3416   -4.8740   53.5278 H         1 <0>         0.2593
     38 H14        -6.7038   -7.7409   49.8028 H         1 <0>         0.0655
     39 H15        -5.7830   -6.0101   48.1052 H         1 <0>         0.0638
     40 H16        -5.6951   -3.6804   49.2452 H         1 <0>         0.0890
@<TRIPOS>BOND
     1    1   25 1
     2    1    6 ar
     3    6    7 1
     4    7   31 1
     5    7   30 1
     6    7    8 1
     7    8   33 1
     8    8   32 1
     9    8    9 1
    10    9   34 1
    11    9   10 2
    12   10   12 2
    13   12   13 2
    14   13   15 2
    15   15   17 2
    16   17   18 2
    17   18   19 2
    18   19   20 1
    19   20   24 1
    20   23   24 1
    21   23   40 1
    22   22   23 2
    23   22   39 1
    24   21   22 1
    25   21   38 1
    26   20   21 2
    27   16   19 2
    28   16   37 1
    29   15   16 2
    30   11   17 2
    31   10   11 2
    32   13   14 2
    33   14   36 1
    34   14   35 1
    35    5    6 ar
    36    5   29 1
    37    4    5 ar
    38    4   28 1
    39    3    4 ar
    40    3   27 1
    41    2    3 ar
    42    2   26 1
    43    1    2 ar
