@<TRIPOS>MOLECULE
JRZ_A1203_3NY8
   48    49     0     0     0
SMALL
USER_CHARGES

@<TRIPOS>ATOM
      1 C1         -0.4000    0.4450   48.8930 C.3       1 <0>        -0.0394
      2 C2          4.6070    8.8140   55.1190 C.3       1 <0>        -0.0219
      3 C3          2.1430    8.7230   55.1300 C.3       1 <0>        -0.0219
      4 C4          1.4650    7.0340   52.3050 C.3       1 <0>        -0.0191
      5 C5          0.6590    2.6950   48.5030 C.ar      1 <0>        -0.0561
      6 C6          1.4930    3.7430   48.8900 C.ar      1 <0>        -0.0311
      7 C7          1.8300    1.0520   52.7400 C.3       1 <0>        -0.0450
      8 C8          1.2850    0.3310   51.5360 C.3       1 <0>        -0.0268
      9 C9          2.7620    2.1350   52.2400 C.3       1 <0>        -0.0247
     10 C10         2.9490    6.0530   49.9860 C.3       1 <0>         0.0854
     11 C11         0.5450    1.5650   49.3050 C.ar      1 <0>        -0.0469
     12 C12         2.2150    3.6580   50.0900 C.ar      1 <0>         0.0797
     13 C13         1.2740    1.4540   50.4820 C.ar      1 <0>        -0.0388
     14 C14         2.1230    2.4980   50.8760 C.ar      1 <0>        -0.0140
     15 C15         3.4000    8.0860   54.5460 C.3       1 <0>        -0.0281
     16 C16         2.9860    7.0360   52.3810 C.3       1 <0>         0.0034
     17 C17         3.6180    7.0650   50.9570 C.3       1 <0>         0.1209
     18 N1          3.4010    8.2360   53.1020 N.4       1 <0>         0.2326
     19 O1          3.5170    8.3590   50.4050 O.3       1 <0>        -0.3839
     20 O2          3.1040    4.7170   50.4780 O.3       1 <0>        -0.3417
     21 H1          0.1413   -0.2811   48.2687 H         1 <0>         0.0278
     22 H2         -0.7845   -0.0593   49.7918 H         1 <0>         0.0278
     23 H3         -1.2399    0.8660   48.3209 H         1 <0>         0.0278
     24 H4          5.5290    8.3727   54.7126 H         1 <0>         0.0284
     25 H5          4.5578    9.8779   54.8441 H         1 <0>         0.0284
     26 H6          4.6068    8.7179   56.2148 H         1 <0>         0.0284
     27 H7          1.2537    8.2135   54.7306 H         1 <0>         0.0284
     28 H8          2.1589    8.6275   56.2257 H         1 <0>         0.0284
     29 H9          2.1100    9.7876   54.8550 H         1 <0>         0.0284
     30 H10         1.0466    7.0134   53.3221 H         1 <0>         0.0285
     31 H11         1.1228    7.9416   51.7863 H         1 <0>         0.0285
     32 H12         1.1269    6.1456   51.7515 H         1 <0>         0.0285
     33 H13         0.1015    2.7609   47.5803 H         1 <0>         0.0621
     34 H14         1.5833    4.6200   48.2663 H         1 <0>         0.0643
     35 H15         1.0075    1.4980   53.3184 H         1 <0>         0.0272
     36 H16         2.3777    0.3498   53.3857 H         1 <0>         0.0272
     37 H17         1.9206   -0.5149   51.2353 H         1 <0>         0.0313
     38 H18         0.2804   -0.0791   51.7167 H         1 <0>         0.0313
     39 H19         2.7991    2.9970   52.9224 H         1 <0>         0.0314
     40 H20         3.7952    1.7740   52.1302 H         1 <0>         0.0314
     41 H21         1.8772    6.2859   49.9026 H         1 <0>         0.0593
     42 H22         3.4243    6.1319   48.9971 H         1 <0>         0.0593
     43 H23         3.4322    7.0157   54.7979 H         1 <0>         0.0845
     44 H24         3.3224    6.1223   52.8928 H         1 <0>         0.0874
     45 H25         4.6730    6.7773   51.0760 H         1 <0>         0.0673
     46 H26         2.7666    8.9725   52.8673 H         1 <0>         0.2020
     47 H27         4.3319    8.4623   52.8154 H         1 <0>         0.2020
     48 H28         3.9234    8.9865   50.9912 H         1 <0>         0.2101
@<TRIPOS>BOND
     1    1   11 1
     2    2   15 1
     3    3   15 1
     4    4   16 1
     5    5    6 ar
     6    5   11 ar
     7    6   12 ar
     8    7    8 1
     9    7    9 1
    10    8   13 1
    11    9   14 1
    12   10   17 1
    13   10   20 1
    14   11   13 ar
    15   12   14 ar
    16   12   20 1
    17   13   14 ar
    18   15   18 1
    19   16   17 1
    20   16   18 1
    21   17   19 1
    22    1   21 1
    23    1   22 1
    24    1   23 1
    25    2   24 1
    26    2   25 1
    27    2   26 1
    28    3   27 1
    29    3   28 1
    30    3   29 1
    31    4   30 1
    32    4   31 1
    33    4   32 1
    34    5   33 1
    35    6   34 1
    36    7   35 1
    37    7   36 1
    38    8   37 1
    39    8   38 1
    40    9   39 1
    41    9   40 1
    42   10   41 1
    43   10   42 1
    44   15   43 1
    45   16   44 1
    46   17   45 1
    47   18   46 1
    48   18   47 1
    49   19   48 1
