@<TRIPOS>MOLECULE
ZST_600_2HV5
   40    43     0     0     0
SMALL
USER_CHARGES

@<TRIPOS>ATOM
      1 C1         14.9950  -10.8800   17.8280 C.ar      1 <0>        -0.0611
      2 C2         15.3290  -11.6090   16.7030 C.ar      1 <0>        -0.0610
      3 C3         15.5470   -9.6570   18.0540 C.ar      1 <0>        -0.0521
      4 C4         16.2030  -11.1010   15.7970 C.ar      1 <0>        -0.0489
      5 C5         15.1920   -4.3990   10.5830 C.ar      1 <0>        -0.0489
      6 C6         15.0850   -5.3390   11.5680 C.ar      1 <0>        -0.0454
      7 C7         17.5920   -4.2360   10.8310 C.ar      1 <0>        -0.0236
      8 C8         16.7530   -6.8810   18.4570 C.3       1 <0>         0.0313
      9 C9         19.1540   -7.3550   14.4790 C.3       1 <0>         0.0866
     10 C10        16.4170   -3.8740   10.2300 C.ar      1 <0>         0.0569
     11 C11        16.4560   -9.0880   17.1530 C.ar      1 <0>         0.0103
     12 C12        16.7750   -9.8380   16.0140 C.ar      1 <0>         0.0475
     13 C13        16.2890   -5.7090   12.1920 C.ar      1 <0>         0.0393
     14 C14        17.5390   -5.1880   11.8500 C.ar      1 <0>         0.0791
     15 C15        17.0780   -7.8000   17.3100 C.2       1 <0>         0.0728
     16 C16        18.2270   -6.5890   13.4910 C.2       1 <0>         0.0988
     17 C17        17.7160   -9.3260   15.0530 C.2       1 <0>         0.2668
     18 C18        15.4340   -6.2000   18.2400 C.2       1 <0>         0.0476
     19 C19        16.4440   -2.8420    9.1320 C.3       1 <0>         0.4175
     20 N1         18.6110   -5.7150   12.6150 N.2       1 <0>        -0.2423
     21 N2         17.8930   -7.3110   16.4580 N.2       1 <0>        -0.1805
     22 N3         18.1990   -8.0690   15.3360 N.am      1 <0>        -0.1825
     23 O1         14.9900   -5.9970   17.0650 O.co2     1 <0>        -0.5494
     24 O2         17.9920   -9.9540   14.0320 O.2       1 <0>        -0.2682
     25 O3         14.9100   -5.6390   19.2330 O.co2     1 <0>        -0.5494
     26 F1         15.6460   -1.8210    9.4710 F         1 <0>        -0.1659
     27 F2         16.1220   -3.2160    7.9300 F         1 <0>        -0.1659
     28 F3         17.6230   -2.2420    9.0320 F         1 <0>        -0.1659
     29 S1         16.5040   -6.8360   13.4530 S.3       1 <0>        -0.0705
     30 H1         14.2876  -11.2855   18.5362 H         1 <0>         0.0618
     31 H2         14.8940  -12.5847   16.5441 H         1 <0>         0.0618
     32 H3         15.2784   -9.1132   18.9476 H         1 <0>         0.0624
     33 H4         16.4571  -11.6666   14.9127 H         1 <0>         0.0625
     34 H5         14.3024   -4.0614   10.0722 H         1 <0>         0.0623
     35 H6         14.1358   -5.7705   11.8495 H         1 <0>         0.0629
     36 H7         18.5312   -3.7985   10.5261 H         1 <0>         0.0645
     37 H8         16.7036   -7.4699   19.3848 H         1 <0>         0.0389
     38 H9         17.5409   -6.1178   18.5386 H         1 <0>         0.0389
     39 H10        19.8263   -8.0483   13.9525 H         1 <0>         0.0555
     40 H11        19.7875   -6.6679   15.0592 H         1 <0>         0.0555
@<TRIPOS>BOND
     1    1    2 ar
     2    1    3 ar
     3    2    4 ar
     4    3   11 ar
     5    4   12 ar
     6    5    6 ar
     7    5   10 ar
     8    6   13 ar
     9    7   10 ar
    10    7   14 ar
    11    8   15 1
    12    8   18 1
    13    9   16 1
    14    9   22 1
    15   10   19 1
    16   11   12 ar
    17   11   15 1
    18   12   17 1
    19   13   14 ar
    20   13   29 1
    21   14   20 1
    22   15   21 2
    23   16   20 2
    24   16   29 1
    25   17   22 am
    26   17   24 2
    27   18   23 1
    28   18   25 2
    29   19   26 1
    30   19   27 1
    31   19   28 1
    32   21   22 1
    33    1   30 1
    34    2   31 1
    35    3   32 1
    36    4   33 1
    37    5   34 1
    38    6   35 1
    39    7   36 1
    40    8   37 1
    41    8   38 1
    42    9   39 1
    43    9   40 1
