@<TRIPOS>MOLECULE
HUX_803_1E66
   40    43     0     0     0
SMALL
USER_CHARGES

@<TRIPOS>ATOM
      1 C1          4.3940   63.6190   64.1310 C.3       1 <0>        -0.0616
      2 C2          4.9340   70.6300   69.2740 C.ar      1 <0>        -0.0426
      3 C3          3.9130   70.3030   68.4610 C.ar      1 <0>        -0.0494
      4 C4          6.6700   70.2770   67.4340 C.ar      1 <0>        -0.0173
      5 C5          5.5190   68.7840   62.9970 C.3       1 <0>        -0.0069
      6 C6          3.1710   68.5550   62.2170 C.3       1 <0>        -0.0391
      7 C7          4.2820   66.4050   62.9960 C.3       1 <0>        -0.0285
      8 C8          2.3030   67.1800   64.1500 C.2       1 <0>        -0.0772
      9 C9          3.2790   64.6360   64.4660 C.3       1 <0>        -0.0346
     10 C10         6.3780   70.6350   68.8450 C.ar      1 <0>         0.0430
     11 C11         4.2480   69.9120   67.0430 C.ar      1 <0>         0.0214
     12 C12         5.5690   69.9500   66.6660 C.ar      1 <0>         0.0744
     13 C13         4.9750   69.1980   64.4700 C.ar      1 <0>         0.0477
     14 C14         3.6230   69.1100   64.7520 C.ar      1 <0>         0.0020
     15 C15         3.2280   69.5120   66.1460 C.ar      1 <0>         0.0393
     16 C16         4.5270   67.8800   62.2460 C.3       1 <0>        -0.0311
     17 C17         2.6210   68.6020   63.7090 C.3       1 <0>         0.0062
     18 C18         3.3050   66.0890   63.8490 C.2       1 <0>        -0.0729
     19 N1          1.8860   69.4300   66.4690 N.pl3     1 <0>        -0.3572
     20 N2          5.9600   69.5810   65.3090 N.ar      1 <0>        -0.2511
     21 Cl1         7.5600   70.9960   69.9590 Cl        1 <0>        -0.0835
     22 H1          4.1969   62.6721   64.6550 H         1 <0>         0.0233
     23 H2          4.4130   63.4402   63.0458 H         1 <0>         0.0233
     24 H3          5.3657   64.0210   64.4536 H         1 <0>         0.0233
     25 H4          4.7050   70.9048   70.2931 H         1 <0>         0.0632
     26 H5          2.8913   70.3198   68.8107 H         1 <0>         0.0625
     27 H6          7.6738   70.2725   67.0354 H         1 <0>         0.0653
     28 H7          5.6722   69.7010   62.4091 H         1 <0>         0.0331
     29 H8          6.4688   68.2416   63.1136 H         1 <0>         0.0331
     30 H9          3.2662   69.5756   61.8178 H         1 <0>         0.0277
     31 H10         2.4799   67.9858   61.5780 H         1 <0>         0.0277
     32 H11         4.1438   65.7020   62.1613 H         1 <0>         0.0313
     33 H12         5.2031   66.2453   63.5758 H         1 <0>         0.0313
     34 H13         1.3815   66.9556   64.6667 H         1 <0>         0.0578
     35 H14         2.3399   64.1786   64.1213 H         1 <0>         0.0307
     36 H15         3.3116   64.7709   65.5572 H         1 <0>         0.0307
     37 H16         4.9584   67.7151   61.2477 H         1 <0>         0.0308
     38 H17         1.7624   69.2887   63.6740 H         1 <0>         0.0393
     39 H18         1.3683   69.1253   65.6696 H         1 <0>         0.1423
     40 H19         1.7623   68.7759   67.2152 H         1 <0>         0.1423
@<TRIPOS>BOND
     1    1    9 1
     2    2    3 ar
     3    2   10 ar
     4    3   11 ar
     5    4   10 ar
     6    4   12 ar
     7    5   13 1
     8    5   16 1
     9    6   16 1
    10    6   17 1
    11    7   16 1
    12    7   18 1
    13    8   17 1
    14    8   18 2
    15    9   18 1
    16   10   21 1
    17   11   12 ar
    18   11   15 ar
    19   12   20 ar
    20   13   14 ar
    21   13   20 ar
    22   14   15 ar
    23   14   17 1
    24   15   19 1
    25    1   22 1
    26    1   23 1
    27    1   24 1
    28    2   25 1
    29    3   26 1
    30    4   27 1
    31    5   28 1
    32    5   29 1
    33    6   30 1
    34    6   31 1
    35    7   32 1
    36    7   33 1
    37    8   34 1
    38    9   35 1
    39    9   36 1
    40   16   37 1
    41   17   38 1
    42   19   39 1
    43   19   40 1
